Version 4
SHEET 1 2148 680
WIRE 960 -176 496 -176
WIRE 1168 -176 1168 -192
WIRE 1168 -176 960 -176
WIRE 1344 -176 1168 -176
WIRE 1696 -176 1472 -176
WIRE 1776 -176 1696 -176
WIRE 2144 -176 1776 -176
WIRE 1168 -48 1168 -176
WIRE 496 -112 496 -176
WIRE 496 -112 368 -112
WIRE 608 -112 496 -112
WIRE 368 -48 368 -112
WIRE 608 -48 608 -112
WIRE 960 -48 960 -176
WIRE 1776 -48 1776 -176
WIRE 1408 -32 1408 -128
WIRE 1568 -32 1408 -32
WIRE 1696 -32 1696 -176
WIRE 1696 -32 1648 -32
WIRE 256 0 16 0
WIRE 1408 32 1408 -32
WIRE 16 48 16 0
WIRE 256 112 256 0
WIRE 368 112 368 16
WIRE 368 112 256 112
WIRE 608 112 608 16
WIRE 768 112 608 112
WIRE 16 176 16 128
WIRE 16 176 -64 176
WIRE 960 176 960 16
WIRE 960 176 16 176
WIRE 1168 176 1168 16
WIRE 1168 176 960 176
WIRE 1408 176 1408 112
WIRE 1408 176 1168 176
WIRE 1776 176 1776 16
WIRE 1776 176 1408 176
WIRE -64 192 -64 176
WIRE 16 208 16 176
WIRE 368 240 368 112
WIRE 608 240 608 112
WIRE 1408 288 1408 176
WIRE 368 384 368 304
WIRE 480 384 368 384
WIRE 608 384 608 304
WIRE 608 384 480 384
WIRE 960 384 960 176
WIRE 1168 384 1168 176
WIRE 1776 384 1776 176
WIRE 16 512 16 288
WIRE 768 512 768 112
WIRE 768 512 16 512
WIRE 1408 528 1408 368
WIRE 1568 528 1408 528
WIRE 1776 528 1776 448
WIRE 1776 528 1648 528
WIRE 1408 592 1408 528
WIRE 480 640 480 384
WIRE 960 640 960 448
WIRE 960 640 480 640
WIRE 1168 640 1168 448
WIRE 1168 640 960 640
WIRE 1344 640 1168 640
WIRE 1776 640 1776 528
WIRE 1776 640 1472 640
FLAG -64 192 0
SYMBOL voltage 16 32 R0
WINDOW 3 -172 105 Left 2
WINDOW 123 -159 47 Left 2
WINDOW 39 -172 77 Left 2
SYMATTR Value SINE(0 18 50)
SYMATTR Value2 AC 18
SYMATTR SpiceLine Rser=0.3
SYMATTR InstName V1
SYMBOL voltage 16 192 R0
WINDOW 3 24 180 Left 2
WINDOW 123 24 124 Left 2
WINDOW 39 24 152 Left 2
SYMATTR Value SINE(0 18 50)
SYMATTR Value2 AC 18
SYMATTR SpiceLine Rser=0.3
SYMATTR InstName V2
SYMBOL diode 384 16 R180
WINDOW 0 24 64 Left 2
WINDOW 3 24 0 Left 2
SYMATTR InstName D1
SYMBOL diode 624 16 R180
WINDOW 0 24 64 Left 2
WINDOW 3 24 0 Left 2
SYMATTR InstName D2
SYMBOL diode 384 304 R180
WINDOW 0 24 64 Left 2
WINDOW 3 24 0 Left 2
SYMATTR InstName D3
SYMBOL diode 624 304 R180
WINDOW 0 24 64 Left 2
WINDOW 3 24 0 Left 2
SYMATTR InstName D4
SYMBOL cap 944 -48 R0
SYMATTR InstName C1
SYMATTR Value 1000µ
SYMBOL cap 944 384 R0
SYMATTR InstName C2
SYMATTR Value 1000µ
SYMBOL LM317 1408 -176 R0
SYMATTR InstName U1
SYMBOL cap 1152 -48 R0
SYMATTR InstName C3
SYMATTR Value 100n
SYMBOL cap 1152 384 R0
SYMATTR InstName C4
SYMATTR Value 100n
SYMBOL cap 1760 -48 R0
SYMATTR InstName C5
SYMATTR Value 100n
SYMBOL cap 1760 384 R0
SYMATTR InstName C6
SYMATTR Value 100n
SYMBOL res 1664 -48 R90
WINDOW 0 0 56 VBottom 2
WINDOW 3 32 56 VTop 2
SYMATTR InstName R1
SYMATTR Value 220
SYMBOL res 1664 512 R90
WINDOW 0 0 56 VBottom 2
WINDOW 3 32 56 VTop 2
SYMATTR InstName R2
SYMATTR Value 220
SYMBOL res 1392 16 R0
SYMATTR InstName R3
SYMATTR Value 0.00001
SYMBOL res 1392 272 R0
SYMATTR InstName R4
SYMATTR Value 0.0001
SYMBOL LM337 1408 640 M180
SYMATTR InstName U2
TEXT -160 648 Left 2 !.tran 1s
